Version 4
SHEET 1 2232 2060
WIRE -96 144 -112 144
WIRE 32 144 -16 144
WIRE 96 144 32 144
WIRE 240 144 176 144
WIRE 288 144 240 144
WIRE 416 144 368 144
WIRE 480 144 416 144
WIRE 624 144 560 144
WIRE 672 144 624 144
WIRE 672 160 672 144
WIRE 496 256 464 256
WIRE 528 256 496 256
WIRE 464 272 464 256
WIRE 528 272 528 256
WIRE 64 368 64 352
WIRE 464 400 464 352
WIRE 528 416 528 352
WIRE 464 448 464 400
WIRE 528 448 528 416
WIRE 64 464 64 448
WIRE 80 464 64 464
WIRE 400 496 304 496
WIRE 672 496 592 496
WIRE -96 512 -96 448
WIRE 496 512 464 512
WIRE 528 512 496 512
WIRE 304 528 304 496
WIRE 672 528 672 496
WIRE 464 576 464 544
WIRE 496 576 496 512
WIRE 496 576 464 576
WIRE 528 576 528 544
WIRE 528 576 496 576
WIRE 496 640 496 576
FLAG 32 144 V_REF_2
FLAG 240 144 V_REF_3
FLAG 416 144 V_REF_4
FLAG 624 144 V_REF_5
FLAG 304 528 Vin
FLAG 672 528 V_REF_4
FLAG -112 144 Vref
FLAG 672 160 0
FLAG 496 256 Vref
FLAG 64 352 Vref
FLAG 80 464 0
FLAG -96 592 0
FLAG -96 448 Vin
FLAG 496 720 0
FLAG 464 400 Vout1
FLAG 528 416 Vout2
SYMBOL res 0 128 R90
WINDOW 0 0 56 VBottom 2
WINDOW 3 32 56 VTop 2
SYMATTR InstName R1
SYMATTR Value 1k
SYMBOL res 192 128 R90
WINDOW 0 0 56 VBottom 2
WINDOW 3 32 56 VTop 2
SYMATTR InstName R2
SYMATTR Value 1k
SYMBOL res 384 128 R90
WINDOW 0 0 56 VBottom 2
WINDOW 3 32 56 VTop 2
SYMATTR InstName R3
SYMATTR Value 1k
SYMBOL res 576 128 R90
WINDOW 0 0 56 VBottom 2
WINDOW 3 32 56 VTop 2
SYMATTR InstName R4
SYMATTR Value 1k
SYMBOL res 544 368 R180
WINDOW 0 -39 79 Left 2
WINDOW 3 -84 43 Left 2
SYMATTR InstName R5
SYMATTR Value {Rload}
SYMBOL res 480 368 R180
WINDOW 0 36 76 Left 2
WINDOW 3 36 40 Left 2
SYMATTR InstName R6
SYMATTR Value {Rload}
SYMBOL ALD1101 592 448 M0
WINDOW 0 -21 3 Left 2
WINDOW 38 -87 27 Left 2
SYMATTR InstName M1
SYMBOL ALD1101 400 448 R0
WINDOW 0 -29 -1 Left 2
WINDOW 38 -96 27 Left 2
SYMATTR InstName M2
SYMBOL voltage 64 352 R0
WINDOW 123 0 0 Left 2
WINDOW 39 0 0 Left 2
WINDOW 0 -51 34 VRight 2
WINDOW 3 50 48 VRight 2
SYMATTR InstName Vref1
SYMATTR Value 1
SYMBOL Misc\\signal -96 496 R0
WINDOW 3 41 56 Left 2
WINDOW 123 0 0 Left 0
WINDOW 39 0 0 Left 0
SYMATTR Value PULSE(0 1 1ms 1ms 1ms 0)
SYMATTR InstName Vin2
SYMBOL current 496 640 R0
WINDOW 123 0 0 Left 0
WINDOW 39 0 0 Left 0
SYMATTR InstName I1
SYMATTR Value {I}
TEXT -160 -24 Left 2 !.include C:\\Users\\conno\\OneDrive\\Desktop\\git\\folding_amplifier\\sim\\ALD.lib
TEXT -144 248 Left 2 !.param Rload=3k
TEXT -160 8 Left 2 !.include C:\\Users\\conno\\OneDrive\\Desktop\\git\\folding_amplifier\\sim\\TLV6001.mod
TEXT -144 296 Left 2 !.tran 0 2ms 1ms
TEXT -144 272 Left 2 !.options cshunt=1e-15
TEXT -144 224 Left 2 !.param I=30u
TEXT -160 40 Left 2 !.include C:\\Users\\conno\\OneDrive\\Desktop\\git\\folding_amplifier\\sim\\lmc6442a.mod
