Version 4
SHEET 1 2232 2060
WIRE 400 96 400 80
WIRE 512 112 512 48
WIRE 96 128 64 128
WIRE 128 128 96 128
WIRE 64 144 64 128
WIRE 128 144 128 128
WIRE 400 192 400 176
WIRE 416 192 400 192
WIRE 64 288 64 224
WIRE 128 288 128 224
WIRE 416 304 400 304
WIRE 544 304 496 304
WIRE 608 304 544 304
WIRE 752 304 688 304
WIRE 800 304 752 304
WIRE 928 304 880 304
WIRE 992 304 928 304
WIRE 1136 304 1072 304
WIRE 1184 304 1136 304
WIRE 64 320 64 288
WIRE 128 320 128 288
WIRE 1184 320 1184 304
WIRE 96 560 0 560
WIRE 368 560 288 560
WIRE 512 560 416 560
WIRE 784 560 704 560
WIRE 928 560 832 560
WIRE 1200 560 1120 560
WIRE 192 576 160 576
WIRE 224 576 192 576
WIRE 608 576 576 576
WIRE 640 576 608 576
WIRE 1024 576 992 576
WIRE 1056 576 1024 576
WIRE 0 592 0 560
WIRE 368 592 368 560
WIRE 416 592 416 560
WIRE 784 592 784 560
WIRE 832 592 832 560
WIRE 1200 592 1200 560
WIRE 160 640 160 608
WIRE 192 640 192 576
WIRE 192 640 160 640
WIRE 224 640 224 608
WIRE 224 640 192 640
WIRE 576 640 576 608
WIRE 608 640 608 576
WIRE 608 640 576 640
WIRE 640 640 640 608
WIRE 640 640 608 640
WIRE 992 640 992 608
WIRE 1024 640 1024 576
WIRE 1024 640 992 640
WIRE 1056 640 1056 608
WIRE 1056 640 1024 640
WIRE 192 704 192 640
WIRE 608 704 608 640
WIRE 1024 704 1024 640
WIRE 336 1008 240 1008
WIRE 608 1008 528 1008
WIRE 752 1008 656 1008
WIRE 1024 1008 944 1008
WIRE 432 1024 400 1024
WIRE 464 1024 432 1024
WIRE 848 1024 816 1024
WIRE 880 1024 848 1024
WIRE 240 1040 240 1008
WIRE 608 1040 608 1008
WIRE 656 1040 656 1008
WIRE 1024 1040 1024 1008
WIRE 400 1088 400 1056
WIRE 432 1088 432 1024
WIRE 432 1088 400 1088
WIRE 464 1088 464 1056
WIRE 464 1088 432 1088
WIRE 816 1088 816 1056
WIRE 848 1088 848 1024
WIRE 848 1088 816 1088
WIRE 880 1088 880 1056
WIRE 880 1088 848 1088
WIRE 432 1152 432 1088
WIRE 848 1152 848 1088
FLAG 128 288 V_Load_1
FLAG 64 288 V_Load_2
FLAG 544 304 V_REF_2
FLAG 752 304 V_REF_3
FLAG 928 304 V_REF_4
FLAG 1136 304 V_REF_5
FLAG 160 512 V_Load_1
FLAG 224 512 V_Load_2
FLAG 0 592 Vin
FLAG 368 592 V_REF_5
FLAG 416 592 Vin
FLAG 784 592 V_REF_4
FLAG 992 512 V_Load_1
FLAG 1056 512 V_Load_2
FLAG 832 592 Vin
FLAG 1200 592 V_REF_3
FLAG 240 1040 Vin
FLAG 608 1040 V_REF_2
FLAG 816 960 V_Load_1
FLAG 880 960 V_Load_2
FLAG 656 1040 Vin
FLAG 1024 1040 Vref
FLAG 576 512 V_Load_2
FLAG 400 960 V_Load_2
FLAG 640 512 V_Load_1
FLAG 464 960 V_Load_1
FLAG 400 304 Vref
FLAG 1184 320 0
FLAG 96 128 Vref
FLAG 400 80 Vref
FLAG 416 192 0
FLAG 512 192 0
FLAG 512 48 Vin
FLAG 192 784 0
FLAG 608 784 0
FLAG 1024 784 0
FLAG 432 1232 0
FLAG 848 1232 0
SYMBOL res 512 288 R90
WINDOW 0 0 56 VBottom 2
WINDOW 3 32 56 VTop 2
SYMATTR InstName R1
SYMATTR Value 1k
SYMBOL res 704 288 R90
WINDOW 0 0 56 VBottom 2
WINDOW 3 32 56 VTop 2
SYMATTR InstName R2
SYMATTR Value 1k
SYMBOL res 896 288 R90
WINDOW 0 0 56 VBottom 2
WINDOW 3 32 56 VTop 2
SYMATTR InstName R3
SYMATTR Value 1k
SYMBOL res 1088 288 R90
WINDOW 0 0 56 VBottom 2
WINDOW 3 32 56 VTop 2
SYMATTR InstName R4
SYMATTR Value 1k
SYMBOL res 144 240 R180
WINDOW 0 -39 79 Left 2
WINDOW 3 -84 43 Left 2
SYMATTR InstName R5
SYMATTR Value {Rload}
SYMBOL res 80 240 R180
WINDOW 0 36 76 Left 2
WINDOW 3 36 40 Left 2
SYMATTR InstName R6
SYMATTR Value {Rload}
SYMBOL ALD1101 288 512 M0
WINDOW 0 -21 3 Left 2
WINDOW 38 -87 27 Left 2
SYMATTR InstName M1
SYMBOL ALD1101 96 512 R0
WINDOW 0 -29 -1 Left 2
WINDOW 38 -96 27 Left 2
SYMATTR InstName M2
SYMBOL ALD1101 704 512 M0
WINDOW 0 -21 3 Left 2
WINDOW 38 -87 27 Left 2
SYMATTR InstName M5
SYMBOL ALD1101 512 512 R0
WINDOW 0 -29 -1 Left 2
WINDOW 38 -96 27 Left 2
SYMATTR InstName M6
SYMBOL ALD1101 1120 512 M0
WINDOW 0 -21 3 Left 2
WINDOW 38 -87 27 Left 2
SYMATTR InstName M8
SYMBOL ALD1101 928 512 R0
WINDOW 0 -29 -1 Left 2
WINDOW 38 -96 27 Left 2
SYMATTR InstName M9
SYMBOL ALD1101 528 960 M0
WINDOW 0 -21 3 Left 2
WINDOW 38 -87 27 Left 2
SYMATTR InstName M11
SYMBOL ALD1101 336 960 R0
WINDOW 0 -29 -1 Left 2
WINDOW 38 -96 27 Left 2
SYMATTR InstName M12
SYMBOL ALD1101 944 960 M0
WINDOW 0 -21 3 Left 2
WINDOW 38 -87 27 Left 2
SYMATTR InstName M14
SYMBOL ALD1101 752 960 R0
WINDOW 0 -29 -1 Left 2
WINDOW 38 -96 27 Left 2
SYMATTR InstName M15
SYMBOL voltage 400 80 R0
WINDOW 123 0 0 Left 2
WINDOW 39 0 0 Left 2
WINDOW 0 -51 34 VRight 2
WINDOW 3 50 48 VRight 2
SYMATTR InstName Vref1
SYMATTR Value 1
SYMBOL Misc\\signal 512 96 R0
WINDOW 3 41 56 Left 2
WINDOW 123 0 0 Left 0
WINDOW 39 0 0 Left 0
SYMATTR Value PULSE(0 1 1ms 1ms 1ms 0)
SYMATTR InstName Vin2
SYMBOL current 192 704 R0
WINDOW 123 0 0 Left 0
WINDOW 39 0 0 Left 0
SYMATTR InstName I1
SYMATTR Value {I}
SYMBOL current 608 704 R0
WINDOW 123 0 0 Left 0
WINDOW 39 0 0 Left 0
SYMATTR InstName I2
SYMATTR Value {I}
SYMBOL current 1024 704 R0
WINDOW 123 0 0 Left 0
WINDOW 39 0 0 Left 0
SYMATTR InstName I3
SYMATTR Value {I}
SYMBOL current 432 1152 R0
WINDOW 123 0 0 Left 0
WINDOW 39 0 0 Left 0
SYMATTR InstName I4
SYMATTR Value {I}
SYMBOL current 848 1152 R0
WINDOW 123 0 0 Left 0
WINDOW 39 0 0 Left 0
SYMATTR InstName I5
SYMATTR Value {I}
TEXT -48 -112 Left 2 !.lib C:\\Users\\conno\\OneDrive\\Desktop\\git\\folding_amplifier\\sim\\ALD.lib
TEXT 960 96 Left 2 !.param Rload=3k
TEXT -48 -88 Left 2 !.include C:\\Users\\conno\\OneDrive\\Desktop\\git\\folding_amplifier\\sim\\TLV6001.mod
TEXT 960 80 Left 2 !.tran 0 2ms 1ms
TEXT 960 56 Left 2 !.options cshunt=1e-15
TEXT 960 120 Left 2 !.param I=30u
