Version 4
SHEET 1 2124 1652
WIRE 688 320 320 320
WIRE 320 352 320 320
WIRE 368 352 320 352
WIRE 368 368 368 352
WIRE 400 368 368 368
WIRE 656 368 624 368
WIRE 128 384 128 352
WIRE 656 384 656 368
WIRE 400 432 320 432
WIRE 656 432 624 432
WIRE 128 496 128 464
WIRE 400 496 368 496
WIRE 736 496 624 496
WIRE 336 512 320 512
WIRE 368 512 368 496
WIRE 368 512 336 512
WIRE 320 544 320 512
WIRE 400 560 384 560
WIRE 688 560 688 320
WIRE 688 560 624 560
WIRE 336 672 336 512
WIRE 656 672 656 432
WIRE 656 672 336 672
WIRE 320 688 320 608
WIRE 480 864 352 864
WIRE 672 864 544 864
WIRE 768 864 672 864
WIRE 944 864 832 864
WIRE 1072 864 944 864
WIRE 1264 864 1136 864
WIRE 1360 864 1264 864
WIRE 1536 864 1424 864
WIRE 1664 864 1536 864
WIRE 1776 864 1744 864
WIRE 1888 864 1776 864
WIRE -208 880 -368 880
WIRE -144 880 -208 880
WIRE -112 880 -144 880
WIRE 672 896 672 864
WIRE 944 896 944 864
WIRE 1264 896 1264 864
WIRE 1536 896 1536 864
WIRE 1776 896 1776 864
WIRE -32 992 -32 976
WIRE -16 992 -32 992
WIRE 672 1008 672 960
WIRE 944 1008 944 960
WIRE 1264 1008 1264 960
WIRE 1536 1008 1536 960
WIRE 1776 1008 1776 960
WIRE -368 1024 -368 960
WIRE -16 1024 -16 992
WIRE -16 1024 -32 1024
WIRE -144 1104 -144 880
WIRE -96 1104 -96 1040
WIRE -96 1104 -144 1104
WIRE -32 1104 -32 1088
WIRE 32 1104 -32 1104
WIRE -32 1120 -32 1104
WIRE -96 1168 -96 1104
WIRE -16 1184 -32 1184
WIRE -16 1216 -16 1184
WIRE -16 1216 -32 1216
WIRE -32 1232 -32 1216
FLAG 128 496 0
FLAG 128 352 Vref
FLAG 656 384 0
FLAG 320 320 Vref
FLAG 320 688 0
FLAG 384 624 0
FLAG 736 496 Vclk2
FLAG 352 864 Vref
FLAG -368 1024 0
FLAG -208 880 Vclk
FLAG 1888 944 0
FLAG 672 1008 Vclk
FLAG 1776 1008 0
FLAG 944 1008 -Vclk
FLAG 32 1104 -Vclk
FLAG -32 1232 0
FLAG -32 976 Vref
FLAG 1264 1008 Vclk
FLAG 1536 1008 -Vclk
SYMBOL voltage 128 368 R0
WINDOW 123 0 0 Left 0
WINDOW 39 0 0 Left 0
SYMATTR InstName Vref
SYMATTR Value {V}
SYMBOL Misc\\NE555 512 464 M0
SYMATTR InstName U1
SYMBOL res 336 336 M0
SYMATTR InstName R1
SYMATTR Value 10k
SYMBOL res 336 416 M0
SYMATTR InstName R2
SYMATTR Value 68k
SYMBOL cap 336 544 M0
SYMATTR InstName C3
SYMATTR Value .01µ
SYMBOL cap 400 560 M0
WINDOW 3 8 -15 Left 2
SYMATTR Value .01µ
SYMATTR InstName C4
SYMBOL cap 656 896 R0
SYMATTR InstName C1
SYMATTR Value {C}
SYMBOL cap 928 896 R0
SYMATTR InstName C2
SYMATTR Value {C}
SYMBOL voltage -368 864 R0
WINDOW 3 -317 115 Left 2
WINDOW 123 0 0 Left 2
WINDOW 39 0 0 Left 2
WINDOW 0 -145 76 Left 2
SYMATTR Value PULSE(0 {V} 0 0 0 500u 1m)
SYMATTR InstName Vphase1
SYMBOL res 1872 848 R0
SYMATTR InstName R3
SYMATTR Value 100k
SYMBOL diode 480 880 R270
WINDOW 0 32 32 VTop 2
WINDOW 3 0 32 VBottom 2
SYMATTR InstName D1
SYMATTR Value 1N4001
SYMBOL diode 768 880 R270
WINDOW 0 32 32 VTop 2
WINDOW 3 0 32 VBottom 2
SYMATTR InstName D2
SYMATTR Value 1N4001
SYMBOL res 1760 848 R90
WINDOW 0 0 56 VBottom 2
WINDOW 3 32 56 VTop 2
SYMATTR InstName R4
SYMATTR Value 30k
SYMBOL cap 1760 896 R0
SYMATTR InstName C5
SYMATTR Value {C}
SYMBOL ALD1102 -96 992 R0
SYMATTR InstName M1
SYMBOL ALD1101 -96 1120 R0
SYMATTR InstName M2
SYMBOL cap 1248 896 R0
SYMATTR InstName C6
SYMATTR Value {C}
SYMBOL cap 1520 896 R0
SYMATTR InstName C7
SYMATTR Value {C}
SYMBOL diode 1072 880 R270
WINDOW 0 32 32 VTop 2
WINDOW 3 0 32 VBottom 2
SYMATTR InstName D3
SYMATTR Value 1N4001
SYMBOL diode 1360 880 R270
WINDOW 0 32 32 VTop 2
WINDOW 3 0 32 VBottom 2
SYMATTR InstName D4
SYMATTR Value 1N4001
TEXT 96 184 Left 2 !.lib C:\\Users\\conno\\OneDrive\\Desktop\\git\\folding_amplifier\\ALD.lib.txt
TEXT 96 216 Left 2 !.tran 0 1 0.5
TEXT 96 152 Left 2 !.include C:\\Users\\conno\\OneDrive\\Desktop\\git\\folding_amplifier\\1N4001RL.sub
TEXT 96 248 Left 2 !.param V=1
TEXT 320 1008 Left 2 !.param C=1u
