Version 4
SHEET 1 2424 1108
WIRE 144 -48 16 -48
WIRE 736 -48 432 -48
WIRE 800 -48 736 -48
WIRE 1424 -32 1280 -32
WIRE 1472 -32 1424 -32
WIRE 1584 -32 1552 -32
WIRE 1632 -32 1584 -32
WIRE 1728 -32 1696 -32
WIRE 1776 -32 1728 -32
WIRE 1888 -32 1840 -32
WIRE 2000 -32 1968 -32
WIRE 2080 -32 2000 -32
WIRE 2320 -32 2080 -32
WIRE 2080 0 2080 -32
WIRE 2320 0 2320 -32
WIRE 16 16 16 0
WIRE 144 16 80 16
WIRE 464 16 432 16
WIRE 1584 48 1584 -32
WIRE 144 80 80 80
WIRE 464 80 432 80
WIRE 1424 96 1424 -32
WIRE 1456 96 1424 96
WIRE 1728 96 1728 -32
WIRE 1728 96 1712 96
WIRE 2080 96 2080 64
WIRE 2000 112 2000 -32
WIRE 2320 112 2320 80
WIRE 144 144 112 144
WIRE 512 144 432 144
WIRE 656 144 512 144
WIRE 800 144 656 144
WIRE 656 160 656 144
WIRE 1424 208 1424 96
WIRE 1456 208 1424 208
WIRE 2000 208 2000 192
WIRE 2000 208 1712 208
WIRE 16 256 16 16
WIRE 112 256 112 144
WIRE 112 256 16 256
WIRE 512 256 512 208
WIRE 512 256 112 256
WIRE 656 256 656 240
WIRE 656 256 512 256
WIRE 736 256 736 16
WIRE 736 256 656 256
WIRE 16 272 16 256
WIRE 1584 272 1584 256
FLAG 16 272 0
FLAG 800 -48 Vref_stepped_up
FLAG 800 144 Vref
FLAG 1584 272 0
FLAG 2080 96 0
FLAG 2320 112 0
FLAG 2320 -32 -Vref
FLAG 1280 -32 Vref_stepped_up
SYMBOL PowerProducts\\LTC1502-3.3 288 48 R0
SYMATTR InstName U2
SYMBOL cap 64 16 R0
SYMATTR InstName C6
SYMATTR Value 1µ
SYMBOL cap 0 -48 R0
SYMATTR InstName C7
SYMATTR Value 10µ
SYMBOL cap 496 144 R0
SYMATTR InstName C8
SYMATTR Value 10µ
SYMBOL cap 448 16 R0
SYMATTR InstName C13
SYMATTR Value 1µ
SYMBOL voltage 656 144 R0
WINDOW 123 0 0 Left 0
WINDOW 39 0 0 Left 0
SYMATTR InstName V2
SYMATTR Value 1V
SYMBOL cap 720 -48 R0
SYMATTR InstName C1
SYMATTR Value 1µ
SYMBOL ind 1456 -16 R270
WINDOW 0 32 56 VTop 0
WINDOW 3 5 56 VBottom 0
SYMATTR InstName L1
SYMATTR Value 10µ
SYMBOL cap 1696 -48 R90
WINDOW 0 0 32 VBottom 0
WINDOW 3 32 32 VTop 0
SYMATTR InstName C2
SYMATTR Value .22µ
SYMBOL res 1984 208 M180
WINDOW 0 36 76 Left 0
WINDOW 3 36 40 Left 0
SYMATTR InstName R1
SYMATTR Value 100k
SYMBOL res 1872 -16 R270
WINDOW 0 32 56 VTop 0
WINDOW 3 0 56 VBottom 0
SYMATTR InstName R2
SYMATTR Value 10
SYMBOL cap 2064 0 R0
SYMATTR InstName C3
SYMATTR Value 10µ
SYMBOL PowerProducts\\LT3483 1584 144 R0
SYMATTR InstName U1
SYMBOL schottky 1840 -48 R90
WINDOW 0 0 32 VBottom 0
WINDOW 3 40 22 VTop 0
SYMATTR InstName D1
SYMATTR Value PMEG2005EB
SYMATTR Description Diode
SYMATTR Type diode
SYMBOL res 2304 -16 R0
SYMATTR InstName Rload1
SYMATTR Value 320
TEXT -40 -248 Left 2 !.tran 0 20ms 1.5ms
TEXT 840 -8 Left 2 ;10mV Ripple
