Version 4
SHEET 1 880 680
WIRE 0 16 -144 16
WIRE 384 16 288 16
WIRE 0 80 -64 80
WIRE 352 80 288 80
WIRE 0 144 -64 144
WIRE 352 144 288 144
WIRE 0 208 -32 208
WIRE 336 208 288 208
WIRE 384 208 336 208
WIRE -144 288 -144 80
WIRE -32 288 -32 208
WIRE -32 288 -144 288
WIRE 384 288 -32 288
WIRE 384 304 384 288
FLAG 384 304 0
FLAG 384 16 Vout
FLAG 336 208 Vin
SYMBOL PowerProducts\\LTC1502-3.3 144 112 R0
SYMATTR InstName U1
SYMBOL voltage 384 192 R0
WINDOW 123 0 0 Left 0
WINDOW 39 0 0 Left 0
SYMATTR InstName V1
SYMATTR Value 1
SYMBOL cap -160 16 R0
SYMATTR InstName C1
SYMATTR Value 100µ
SYMBOL cap -80 80 R0
SYMATTR InstName C2
SYMATTR Value 1µ
SYMBOL cap 336 80 R0
SYMATTR InstName C3
SYMATTR Value 1µ
TEXT -162 328 Left 2 !.tran 0 10 1
