Version 4
SHEET 1 2232 2060
WIRE 160 96 128 96
WIRE 192 96 160 96
WIRE 128 112 128 96
WIRE 192 112 192 96
WIRE 416 160 400 160
WIRE 544 160 496 160
WIRE 608 160 544 160
WIRE 752 160 688 160
WIRE 800 160 752 160
WIRE 928 160 880 160
WIRE 992 160 928 160
WIRE 1136 160 1072 160
WIRE 1184 160 1136 160
WIRE -880 176 -880 160
WIRE -736 176 -736 160
WIRE 1184 176 1184 160
WIRE -624 192 -624 128
WIRE 128 256 128 192
WIRE 192 256 192 192
WIRE -880 272 -880 256
WIRE -864 272 -880 272
WIRE -736 272 -736 256
WIRE -720 272 -736 272
WIRE 128 288 128 256
WIRE 192 288 192 256
WIRE -768 528 -864 528
WIRE -496 528 -576 528
WIRE -352 528 -448 528
WIRE -80 528 -160 528
WIRE 64 528 -32 528
WIRE 336 528 256 528
WIRE 480 528 384 528
WIRE 752 528 672 528
WIRE 896 528 800 528
WIRE 1168 528 1088 528
WIRE -672 544 -704 544
WIRE -640 544 -672 544
WIRE -256 544 -288 544
WIRE -224 544 -256 544
WIRE 160 544 128 544
WIRE 192 544 160 544
WIRE 576 544 544 544
WIRE 608 544 576 544
WIRE 992 544 960 544
WIRE 1024 544 992 544
WIRE -864 560 -864 528
WIRE -496 560 -496 528
WIRE -448 560 -448 528
WIRE -80 560 -80 528
WIRE -32 560 -32 528
WIRE 336 560 336 528
WIRE 384 560 384 528
WIRE 752 560 752 528
WIRE 800 560 800 528
WIRE 1168 560 1168 528
WIRE -704 608 -704 576
WIRE -672 608 -672 544
WIRE -672 608 -704 608
WIRE -640 608 -640 576
WIRE -640 608 -672 608
WIRE -288 608 -288 576
WIRE -256 608 -256 544
WIRE -256 608 -288 608
WIRE -224 608 -224 576
WIRE -224 608 -256 608
WIRE 128 608 128 576
WIRE 160 608 160 544
WIRE 160 608 128 608
WIRE 192 608 192 576
WIRE 192 608 160 608
WIRE 544 608 544 576
WIRE 576 608 576 544
WIRE 576 608 544 608
WIRE 608 608 608 576
WIRE 608 608 576 608
WIRE 960 608 960 576
WIRE 992 608 992 544
WIRE 992 608 960 608
WIRE 1024 608 1024 576
WIRE 1024 608 992 608
WIRE -672 672 -672 608
WIRE -256 672 -256 608
WIRE 160 672 160 608
WIRE 576 672 576 608
WIRE 992 672 992 608
WIRE 48 912 48 896
WIRE 464 960 448 960
WIRE 864 960 848 960
WIRE 1056 960 944 960
WIRE 464 992 464 960
WIRE 464 992 448 992
WIRE 48 1008 48 992
WIRE 208 1008 48 1008
WIRE 448 1024 448 992
WIRE 480 1024 448 1024
WIRE 48 1040 48 1008
WIRE 448 1040 448 1024
WIRE 752 1040 736 1040
WIRE 848 1040 848 960
WIRE 848 1040 832 1040
WIRE 928 1040 848 1040
WIRE 1056 1056 1056 960
WIRE 1056 1056 992 1056
WIRE 1136 1056 1056 1056
WIRE 928 1072 880 1072
WIRE 208 1088 208 1008
WIRE 208 1088 112 1088
WIRE 384 1088 208 1088
WIRE 48 1104 32 1104
WIRE 464 1104 448 1104
WIRE 32 1136 32 1104
WIRE 32 1136 16 1136
WIRE 48 1136 32 1136
WIRE 448 1136 48 1136
WIRE 464 1136 464 1104
WIRE 464 1136 448 1136
WIRE 880 1136 880 1072
WIRE 880 1136 720 1136
FLAG 192 256 V_Load_1
FLAG 128 256 V_Load_2
FLAG 544 160 V_REF_2
FLAG 752 160 V_REF_3
FLAG 928 160 V_REF_4
FLAG 1136 160 V_REF_5
FLAG -704 480 V_Load_1
FLAG -640 480 V_Load_2
FLAG -864 560 Vin
FLAG -496 560 V_REF_5
FLAG -448 560 Vin
FLAG -80 560 V_REF_4
FLAG 128 480 V_Load_1
FLAG 192 480 V_Load_2
FLAG -32 560 Vin
FLAG 336 560 V_REF_3
FLAG 384 560 Vin
FLAG 752 560 V_REF_2
FLAG 960 480 V_Load_1
FLAG 1024 480 V_Load_2
FLAG 800 560 Vin
FLAG 1168 560 Vref
FLAG -288 480 V_Load_2
FLAG 544 480 V_Load_2
FLAG -224 480 V_Load_1
FLAG 608 480 V_Load_1
FLAG 400 160 Vref
FLAG 1184 176 0
FLAG 160 96 Vref
FLAG -736 160 Vref
FLAG -720 272 0
FLAG -624 272 0
FLAG -624 128 Vin
FLAG -880 160 -Vref
FLAG -864 272 0
FLAG -672 752 0
FLAG -256 752 0
FLAG 160 752 0
FLAG 576 752 0
FLAG 992 752 0
FLAG 448 896 Vref
FLAG 384 944 V_Load_2
FLAG 480 1024 L2_Shifted
FLAG 736 1040 0
FLAG 960 1024 Vref
FLAG 960 1088 -Vref
FLAG 48 896 Vref
FLAG 16 1136 -Vref
FLAG 720 1136 L2_Shifted
FLAG 1136 1056 Vout
SYMBOL res 512 144 R90
WINDOW 0 0 56 VBottom 2
WINDOW 3 32 56 VTop 2
SYMATTR InstName R1
SYMATTR Value 1k
SYMBOL res 704 144 R90
WINDOW 0 0 56 VBottom 2
WINDOW 3 32 56 VTop 2
SYMATTR InstName R2
SYMATTR Value 1k
SYMBOL res 896 144 R90
WINDOW 0 0 56 VBottom 2
WINDOW 3 32 56 VTop 2
SYMATTR InstName R3
SYMATTR Value 1k
SYMBOL res 1088 144 R90
WINDOW 0 0 56 VBottom 2
WINDOW 3 32 56 VTop 2
SYMATTR InstName R4
SYMATTR Value 1k
SYMBOL res 208 208 R180
WINDOW 0 -39 79 Left 2
WINDOW 3 -112 29 Left 2
SYMATTR InstName R5
SYMATTR Value {Rload}
SYMBOL res 144 208 R180
WINDOW 0 36 76 Left 2
WINDOW 3 36 40 Left 2
SYMATTR InstName R6
SYMATTR Value {Rload}
SYMBOL ALD1101 -576 480 M0
WINDOW 0 -21 3 Left 2
WINDOW 38 -87 27 Left 2
SYMATTR InstName M1
SYMBOL ALD1101 -768 480 R0
WINDOW 0 -29 -1 Left 2
WINDOW 38 -96 27 Left 2
SYMATTR InstName M2
SYMBOL ALD1101 -160 480 M0
WINDOW 0 -21 3 Left 2
WINDOW 38 -87 27 Left 2
SYMATTR InstName M5
SYMBOL ALD1101 -352 480 R0
WINDOW 0 -29 -1 Left 2
WINDOW 38 -96 27 Left 2
SYMATTR InstName M6
SYMBOL ALD1101 256 480 M0
WINDOW 0 -21 3 Left 2
WINDOW 38 -87 27 Left 2
SYMATTR InstName M8
SYMBOL ALD1101 64 480 R0
WINDOW 0 -29 -1 Left 2
WINDOW 38 -96 27 Left 2
SYMATTR InstName M9
SYMBOL ALD1101 672 480 M0
WINDOW 0 -21 3 Left 2
WINDOW 38 -87 27 Left 2
SYMATTR InstName M11
SYMBOL ALD1101 480 480 R0
WINDOW 0 -29 -1 Left 2
WINDOW 38 -96 27 Left 2
SYMATTR InstName M12
SYMBOL ALD1101 1088 480 M0
WINDOW 0 -21 3 Left 2
WINDOW 38 -87 27 Left 2
SYMATTR InstName M14
SYMBOL ALD1101 896 480 R0
WINDOW 0 -29 -1 Left 2
WINDOW 38 -96 27 Left 2
SYMATTR InstName M15
SYMBOL voltage -736 160 R0
WINDOW 123 0 0 Left 2
WINDOW 39 0 0 Left 2
WINDOW 0 -51 34 VRight 2
WINDOW 3 50 48 VRight 2
SYMATTR InstName Vref1
SYMATTR Value 1
SYMBOL Misc\\signal -624 176 R0
WINDOW 3 41 56 Left 2
WINDOW 123 0 0 Left 0
WINDOW 39 0 0 Left 0
SYMATTR Value PULSE(0 1 1ms 1ms 1ms 0)
SYMATTR InstName Vin2
SYMBOL voltage -880 272 R180
WINDOW 123 0 0 Left 2
WINDOW 39 0 0 Left 2
WINDOW 0 -51 34 VRight 2
WINDOW 3 50 48 VRight 2
SYMATTR InstName Vref2
SYMATTR Value 1
SYMBOL current -672 672 R0
WINDOW 123 0 0 Left 0
WINDOW 39 0 0 Left 0
SYMATTR InstName I1
SYMATTR Value {I}
SYMBOL current -256 672 R0
WINDOW 123 0 0 Left 0
WINDOW 39 0 0 Left 0
SYMATTR InstName I2
SYMATTR Value {I}
SYMBOL current 160 672 R0
WINDOW 123 0 0 Left 0
WINDOW 39 0 0 Left 0
SYMATTR InstName I3
SYMATTR Value {I}
SYMBOL current 576 672 R0
WINDOW 123 0 0 Left 0
WINDOW 39 0 0 Left 0
SYMATTR InstName I4
SYMATTR Value {I}
SYMBOL current 992 672 R0
WINDOW 123 0 0 Left 0
WINDOW 39 0 0 Left 0
SYMATTR InstName I5
SYMATTR Value {I}
SYMBOL ALD1101 384 896 R0
WINDOW 0 -29 -1 Left 2
WINDOW 38 -96 27 Left 2
SYMATTR InstName M18
SYMBOL Opamps\\opamp2 960 992 R0
SYMATTR InstName U1
SYMATTR Value TLV6001
SYMBOL res 960 944 R90
WINDOW 0 0 56 VBottom 2
WINDOW 3 32 56 VTop 2
SYMATTR InstName R10
SYMATTR Value 28k
SYMBOL res 848 1024 R90
WINDOW 0 0 56 VBottom 2
WINDOW 3 32 56 VTop 2
SYMATTR InstName R11
SYMATTR Value 1k
SYMBOL res 32 896 R0
SYMATTR InstName R8
SYMATTR Value 43.5k
SYMBOL ALD1101 112 1040 M0
WINDOW 0 -21 3 Left 2
WINDOW 38 -87 27 Left 2
SYMATTR InstName M3
SYMBOL ALD1101 384 1040 R0
WINDOW 0 -21 3 Left 2
WINDOW 38 -87 27 Left 2
SYMATTR InstName M19
TEXT -904 -104 Left 2 !.lib C:\\Users\\conno\\OneDrive\\Desktop\\git\\folding_amplifier\\sim\\ALD.lib
TEXT -904 928 Left 2 !.param Rload=3k
TEXT -912 -64 Left 2 !.include C:\\Users\\conno\\OneDrive\\Desktop\\git\\folding_amplifier\\sim\\TLV6001.mod
TEXT -904 896 Left 2 !.tran 0 2ms 1ms
TEXT -904 872 Left 2 !.options cshunt=1e-15
TEXT -904 960 Left 2 !.param I=30u
